24
 energy: -37.690939898656 gnorm: 0.000372634081 xtb: 6.4.1 (afa7bdf)
N        -0.26455626952168    1.28625064776081    0.00217614396506
N         0.83038049251486    0.54292477009320    0.00635885720587
C         1.98167998859124    1.10209068922340    0.00661418795046
C         3.17540577391493    0.32040847074232    0.00381524226900
C         3.31606238602114   -1.04479487502000   -0.01194087690500
C         4.65960797146762   -1.45811695709761   -0.01414183964665
C         5.53302525358093   -0.41543004034436   -0.00046206258332
S         4.72930998821843    1.10261325225066    0.01556535175993
C        -1.52744099957505    0.73217422287567    0.00460020579536
C        -1.70179583125232   -0.65161624596656    0.02512309198362
C        -2.97532651165693   -1.18310011895098    0.02804459534952
C        -4.08557993451464   -0.35294489459659    0.01046692180541
C        -3.91344770374310    1.02152759866083   -0.01006918463671
C        -2.64441948234197    1.56687125349720   -0.01291353556260
H        -0.18691617710684    2.30589712552071   -0.00565232893550
H         2.09677346777727    2.19295009289793    0.00640640637840
H         2.47139115459613   -1.70774770132133   -0.02188585892532
H         4.96902311406717   -2.48819567140073   -0.02638760246297
H         6.60453876504722   -0.44088258668327    0.00129628383766
H        -0.82790908557772   -1.28242723455539    0.03872665568279
H        -3.10475822925300   -2.25528959534870    0.04453529675961
H        -5.07942640823596   -0.77415441431374    0.01258729352162
H        -4.77391474552277    1.67424156189333   -0.02423977484251
H        -2.51073013604504    2.63977561084103   -0.02893500525202
